powerflow/Codes/PF_Formulation/resultados_csv/19/500bus/ramos.csv
caso,script,branch_id,f_bus,t_bus,pf_pu,qf_pu,pt_pu,qt_pu,loss_p_pu,loss_q_pu
500bus.pwf,19,1,242,287,-0.8828038674590875,-0.06147557882899907,0.888454137126331,0.09414931824034806,0.005650269667243579,0.03267373941134899
500bus.pwf,19,2,325,324,-1.0350000099998184,-0.275913684852373,1.0356557567112135,0.2804494189994279,0.0006557467113950111,0.004535734147054882
500bus.pwf,19,3,2,1,-0.4280000099992718,-0.11409626383632317,0.4281036521022641,0.11470907948753224,0.00010364210299229626,0.0006128156512090754
500bus.pwf,19,4,38,37,-0.0012900099998243166,-0.0003299113078560871,0.0012900109697933106,0.00032991810178150934,9.699689940134704e-10,6.793925422243774e-9
500bus.pwf,19,5,423,496,-1.9014939213883508,-0.21730285852278863,1.9155784938759046,0.34106239195162014,0.014084572487553793,0.1237595334288315
500bus.pwf,19,6,77,76,-0.06951000999981484,-0.018531332640089476,0.06951361524665368,0.018548516958356503,3.605246838844778e-6,1.7184318267027265e-5
500bus.pwf,19,7,294,293,-0.25610000999965454,-0.0682907571725751,0.25614736491544765,0.06853225109608602,4.7354915793107466e-5,0.00024149392351091592
500bus.pwf,19,8,27,382,0.4102449923741963,0.2572153209885821,-0.4094566527299289,-0.2609943609682512,0.0007883396442673885,-0.0037790399796691077
500bus.pwf,19,9,377,376,-0.9039000099998108,-0.24096499738452382,0.9043533207371314,0.24399492671408085,0.00045331073732057803,0.003029929329557035
500bus.pwf,19,10,46,156,0.38795835133239603,0.13202911036576487,-0.38676937597729427,-0.13982226691063387,0.0011889753551017623,-0.0077931565448690066
500bus.pwf,19,11,387,470,0.908044287845311,0.15527754014887363,-0.9062339077982506,-0.14561014615844725,0.001810380047060356,0.009667393990426376
500bus.pwf,19,12,495,449,-0.40121453514114647,-0.09909890021404448,0.40152314950080603,0.09634614262270629,0.00030861435965956474,-0.002752757591338195
500bus.pwf,19,13,365,374,0.29664031229658794,0.04410084769572928,-0.29637722566057234,-0.05011553574327218,0.000263086636015597,-0.006014688047542904
500bus.pwf,19,14,263,491,0.9903558771680463,0.10405344226926894,-0.986933437028223,-0.08190098741101104,0.0034224401398232907,0.022152454858257897
500bus.pwf,19,15,285,487,1.0746396202736173,-0.20732730701935032,-1.0707852099834256,0.23422254842451784,0.0038544102901916233,0.026895241405167525
500bus.pwf,19,16,401,5,1.2057663242282919,-0.15320969116819375,-1.1984966172105058,0.20796137743831314,0.0072697070177860645,0.05475168627011939
500bus.pwf,19,17,237,236,-0.027120009999802453,-0.007229022060243103,0.02712057499381314,0.007231738558686181,5.649940106877693e-7,2.716498443078308e-6
500bus.pwf,19,18,133,369,-0.31897438869575967,-0.07540207653424386,0.31963343501171937,0.061516072096699015,0.0006590463159596993,-0.013886004437544841
500bus.pwf,19,19,493,380,0.8599327444432502,0.09050331692396962,-0.8573148714046067,-0.07560872412369501,0.00261787303864347,0.014894592800274609
500bus.pwf,19,20,322,208,1.272907209858201,-0.5465554617701505,-1.267213481614077,0.5926017399354995,0.005693728244124063,0.04604627816534901
500bus.pwf,19,21,178,176,-0.06813000999981991,-0.018156922870963967,0.06813341857062508,0.01817263945031925,3.4085708051634356e-6,1.571657935528492e-5
500bus.pwf,19,22,263,276,1.1681806795150877,0.6593168318854552,-1.1666316029448969,-0.6471143793039786,0.001549076570190877,0.012202452581476564
500bus.pwf,19,23,148,147,-0.5742000099985735,-0.15308895344648568,0.5744100322983631,0.15448334985603743,0.00021002229978961395,0.0013943964095517458
500bus.pwf,19,24,177,176,-0.08781000999979154,-0.02340692211454473,0.08781462024334911,0.02343711457645134,4.610243557578997e-6,3.0192461906608514e-5
500bus.pwf,19,25,217,216,-0.5510000099998225,-0.14687767408400093,0.5512081532725732,0.14796324532300348,0.0002081432727507604,0.0010855712390025474
500bus.pwf,19,26,173,172,-0.031350009999814986,-0.008308584810468382,0.03135075251124688,0.008312030111913409,7.425114318948545e-7,3.4453014450264163e-6
500bus.pwf,19,27,368,367,-0.11450000999981273,-0.03052387826845733,0.11450732053297645,0.030569364615235364,7.3105331637179916e-6,4.5486346778034203e-5
500bus.pwf,19,28,66,308,0.5631592486722969,0.02587184232939463,-0.5608192667204654,-0.025026670418326152,0.0023399819518314935,0.0008451719110684763
500bus.pwf,19,29,379,378,-0.1301000099997836,-0.034669515524748694,0.13011069512461831,0.03473907812833362,1.0685124834708404e-5,6.956260358492727e-5
500bus.pwf,19,30,236,106,0.5739584449489029,0.07350632588126287,-0.5728819702462223,-0.07250839861152285,0.0010764747026805743,0.0009979272697400177
500bus.pwf,19,31,232,371,-0.4327683646242525,0.1318301303171544,0.4328782700989221,-0.2713599584957641,0.00010990547466960265,-0.1395298281786097
500bus.pwf,19,32,58,253,0.738586340570573,0.21108948194661178,-0.7358176384406041,-0.1979676618727559,0.0027687021299689363,0.013121820073855872
500bus.pwf,19,33,179,374,-0.04863359088015519,0.004870843708653262,0.048643226056023905,-0.016121625078577118,9.635175868716317e-6,-0.011250781369923857
500bus.pwf,19,34,366,365,-0.5649000099997107,-0.15059794643243452,0.5650902589107641,0.1519748421558451,0.00019024891105345887,0.0013768957234105983
500bus.pwf,19,35,315,314,-0.00426000999980191,-0.0013897275442791178,0.0042600208594386554,0.0013897912348856843,1.0859636745408352e-8,6.369060656652437e-8
500bus.pwf,19,36,204,202,-0.45670000999980676,-0.12176756919025945,0.4568300938640205,0.1226822955925594,0.00013008386421375917,0.000914726402299948
500bus.pwf,19,37,259,253,-0.08160000999982182,-0.02168570084169964,0.0816049237310393,0.0217126721013431,4.91373121747074e-6,2.6971259643460144e-5
500bus.pwf,19,38,160,399,-0.12886378289807598,-0.07617006901189827,0.12895448520538577,0.06454149469227533,9.070230730978679e-5,-0.011628574319622942
500bus.pwf,19,39,308,500,-0.2490515819971637,-0.01888393407294567,0.24949812214933753,0.0023306641425102914,0.00044654015217382437,-0.016553269930435377
500bus.pwf,19,40,336,93,0.48126024235827525,-0.06847553742812522,-0.47988313357057044,0.06246000473552797,0.001377108787704806,-0.006015532692597247
500bus.pwf,19,41,367,15,-1.4674640257223857,-0.18356822395276562,1.4716879870905961,0.21818770476228333,0.00422396136821046,0.03461948080951771
500bus.pwf,19,42,116,114,-0.03099000999979782,-0.00826256520640609,0.030990554544118566,0.008266242767616314,5.445443207463541e-7,3.677561210224667e-6
500bus.pwf,19,43,283,236,-0.21137698043931216,-0.04937111608527364,0.21159431100823475,0.03714997031687692,0.00021733056892259128,-0.012221145768396724
500bus.pwf,19,44,462,465,-0.4370885165410616,-0.012200660246775477,0.4377148679027991,0.008075884536043368,0.0006263513617374983,-0.004124775710732109
500bus.pwf,19,45,41,40,-0.5799000099998143,-0.15460015453519366,0.5801280446317737,0.15601727850122932,0.0002280346319594173,0.0014171239660356605
500bus.pwf,19,46,489,149,0.0065726244530819634,0.03237035066703011,-0.006569237997517994,-0.03966720956713512,3.386455563969548e-6,-0.007296858900105008
500bus.pwf,19,47,29,491,0.13690833376110315,-0.1667940113893372,-0.13665660998102416,0.15211687872602148,0.0002517237800789829,-0.014677132663315717
500bus.pwf,19,48,95,170,0.1266656501050802,0.013579995436404101,-0.12663084212348183,-0.019719372217312025,3.480798159838372e-5,-0.006139376780907924
500bus.pwf,19,49,199,196,-0.8639000099972292,-0.23039938819922054,0.8644536064161825,0.23304462394425582,0.0005535964189533615,0.0026452357450352793
500bus.pwf,19,50,239,238,-0.39130000999981723,-0.10439192155864241,0.3913868805012371,0.10500503041252607,8.687050141986674e-5,0.0006131088538836593
500bus.pwf,19,51,137,426,-0.6376383880833829,-0.13520027012483887,0.638961488456234,0.13891880679262208,0.0013231003728511048,0.003718536667783212
500bus.pwf,19,52,335,333,-0.00834000999982287,-0.0022182585372773817,0.008340056994259656,0.0022185247915671087,4.6994436786462757e-8,2.6625428972693044e-7
500bus.pwf,19,53,26,24,-0.2166000099998212,-0.057731869402879825,0.21662896111683072,0.05792364612718697,2.8951117009512473e-5,0.00019177672430714665
500bus.pwf,19,54,112,283,0.1153235654713421,0.01346969320483233,-0.11519941553426621,-0.03815711872757661,0.00012414993707587918,-0.024687425522744277
500bus.pwf,19,55,86,85,-0.1759000099998157,-0.0469086555777766,0.17592223152422648,0.04704155208072383,2.2221524410781512e-5,0.00013289650294723288
500bus.pwf,19,56,295,447,-0.866458535677073,0.23766684928945725,0.8692621495934162,-0.2228837670015088,0.002803613916343206,0.014783082287948446
500bus.pwf,19,57,23,464,-0.2460306616188631,-0.17592191021239484,0.2460893631183626,-0.08934023616846803,5.870149949949166e-5,-0.2652621463808629
500bus.pwf,19,58,342,10,-0.5106235070595716,-0.15049953186315457,0.511447143196795,0.14988938266028407,0.0008236361372233603,-0.0006101492028705024
500bus.pwf,19,59,108,495,0.4787581097741924,0.09438632737079121,-0.47787899372498943,-0.09688392194060856,0.0008791160492029881,-0.002497594569817352
500bus.pwf,19,60,492,405,-0.2964014259521833,-0.01971179508874294,0.296793841668686,0.010469696685472991,0.00039241571650272533,-0.00924209840326995
500bus.pwf,19,61,496,143,-1.4023700216190242,-0.1990416330512291,1.4064291041846886,0.23160884576416993,0.00405908256566434,0.03256721271294083
500bus.pwf,19,62,39,332,-0.22796248835393107,0.14294176645372036,0.22799841145633848,-0.24711839104076094,3.5923102407409147e-5,-0.10417662458704058
500bus.pwf,19,63,13,12,-0.3716000099998127,-0.09910133212792445,0.3716977155458452,0.09959277644156302,9.770554603250048e-5,0.0004914443136385671
500bus.pwf,19,64,191,35,0.07674995401082489,0.06851007098515413,-0.07670147963138378,-0.08058278227037849,4.8474379441110216e-5,-0.012072711285224358
500bus.pwf,19,65,251,360,-0.7579750985417089,-0.14732069168142323,0.7608336419933599,0.159536943592227,0.002858543451651041,0.012216251910803777
500bus.pwf,19,66,136,135,-0.2676000099997967,-0.0713376063644231,0.2676418149402199,0.07161643800419859,4.180494042316241e-5,0.00027883163977548975
500bus.pwf,19,67,263,326,1.287688748007531,0.24862666372962697,-1.283363281427339,-0.2148785185416914,0.00432546658019195,0.03374814518793556
500bus.pwf,19,68,286,285,-0.0826800099998234,-0.022567943274844612,0.08268488974214384,0.022591828560274127,4.879742320440528e-6,2.3885285429514624e-5
500bus.pwf,19,69,10,349,-0.5361675908780476,-0.15637824251835944,0.5366134639893162,0.15639538888636842,0.0004458731112686465,1.7146368008980062e-5
500bus.pwf,19,70,150,149,-0.01503000999981324,-0.004026668479556918,0.01503018032053077,0.004027593496377393,1.703207175296484e-7,9.250168204744114e-7
500bus.pwf,19,71,15,369,0.49967639548539056,0.05236010833246437,-0.4992103289870652,-0.054135717342851684,0.00046606649832536817,-0.0017756090103873134
500bus.pwf,19,72,233,486,0.8839877390464892,0.10118084904338895,-0.8821933798037964,-0.0909495459730831,0.001794359242692778,0.010231303070305842
500bus.pwf,19,73,276,485,0.20395902275691175,0.22324863272070716,-0.2037115208652947,-0.22940200265956479,0.0002475018916170413,-0.006153369938857622
500bus.pwf,19,74,281,384,-0.6883925896380484,0.10306513432013285,0.6903427356881385,-0.0956531434461426,0.0019501460500901402,0.0074119908739902485
500bus.pwf,19,75,420,419,-0.052260009999810376,-0.014157984663846612,0.052261735027305446,0.014169444342080516,1.725027495069753e-6,1.1459678233904924e-5
500bus.pwf,19,76,449,330,-0.43485352271097943,-0.10520735113516075,0.4352769720825874,0.10297618072521139,0.0004234493716079868,-0.0022311704099493568
500bus.pwf,19,77,268,267,-1.1710000099997249,-0.31240027501132217,1.171783014109467,0.3179724957771499,0.0007830041097420803,0.005572220765827751
500bus.pwf,19,78,337,336,-0.056730009999803994,-0.015089606807195313,0.05673197077180032,0.015103208182254437,1.960771996323274e-6,1.360137505912462e-5
500bus.pwf,19,79,451,449,-0.02211000999981687,-0.005889680017094508,0.022110291276777706,0.005891391422312937,2.8127696083402043e-7,1.711405218429718e-6
500bus.pwf,19,80,376,469,1.014976256484231,0.22126646728096364,-1.0095050268524353,-0.1863550155527611,0.005471229631795804,0.034911451728202536
500bus.pwf,19,81,346,345,-0.47580000999981115,-0.12689111276631998,0.47593966717252106,0.12769056602485712,0.00013965717270991718,0.0007994532585371417
500bus.pwf,19,82,440,57,1.0303634771431471,-0.03810942640879188,-1.0297178710707233,-0.10301098554754463,0.00064560607242381,-0.1411204119563365
500bus.pwf,19,83,12,216,0.2955446523354827,0.036207551124631254,-0.29517075629311956,-0.044182443831305096,0.0003738960423631532,-0.007974892706673842
500bus.pwf,19,84,133,226,0.051437273938047326,-0.007583343003595998,-0.05142001743273729,-0.012980924044668642,1.7256505310037085e-5,-0.02056426704826464
500bus.pwf,19,85,100,99,-0.13520000999981618,-0.036081959519230294,0.13521266571388935,0.03615306051497022,1.2655714073162017e-5,7.110099573992557e-5
500bus.pwf,19,86,95,369,-0.46673610432061846,-0.10467379842052377,0.4676770415867311,0.10106773811386499,0.0009409372661126625,-0.003606060306658776
500bus.pwf,19,87,372,112,1.5266748343556809,0.3163220875379896,-1.5217409085062532,-0.27504410824515346,0.004933925849427645,0.041277979292836164
500bus.pwf,19,88,139,376,0.8315591575959276,0.22331361535643884,-0.8295442868796232,-0.2120883693911751,0.002014870716304351,0.011225245965263753
500bus.pwf,19,89,200,163,-0.4751664807487519,-0.02685763393414018,0.4758960434014565,0.022769061652508894,0.0007295626527046295,-0.004088572281631286
500bus.pwf,19,90,238,46,0.8246164532684321,0.2625574456255574,-0.8221866803462474,-0.24853982379380601,0.002429772922184714,0.01401762183175137
500bus.pwf,19,91,203,202,-0.0468900099998193,-0.012467599944692515,0.04689160261869874,0.012476553259510942,1.5926188794423979e-6,8.953314818427316e-6
500bus.pwf,19,92,417,474,-0.7270996572247496,-0.07780775712647899,0.7290235496994096,0.0859462320305548,0.0019238924746600716,0.00813847490407582
500bus.pwf,19,93,15,230,1.1463372364024504,-0.04960573744267115,-1.132090142856935,0.1525170597885942,0.014247093545515455,0.10291132234592305
500bus.pwf,19,94,142,141,-1.613000009999812,-0.43006564017722115,1.6149763959332226,0.4398992178947505,0.0019763859334105405,0.009833577717529352
500bus.pwf,19,95,190,189,-0.14070000999983018,-0.03751904944286843,0.1407150489665812,0.03758470614733277,1.5038966751035332e-5,6.565670446434524e-5
500bus.pwf,19,96,317,316,-0.037530009999822145,-0.010373856673285978,0.037531025943077,0.01037846625857545,1.0159432548562108e-6,4.609585289472307e-6
500bus.pwf,19,97,206,205,-0.03009000999979774,-0.008021676556489131,0.03009057074933876,0.008024739337366048,5.607495410231422e-7,3.062780876916804e-6
500bus.pwf,19,98,406,405,-0.052500009999808375,-0.013894398505257147,0.05250177861659207,0.013905162061504332,1.768616783692778e-6,1.076355624718417e-5
500bus.pwf,19,99,186,185,-0.4535000099998115,-0.12084819699371957,0.45362632577765255,0.12153749261516106,0.0001263157778410573,0.000689295621441488
500bus.pwf,19,100,23,471,-1.2563019462991358,-0.12031051967128961,1.257137381109681,-0.01813200103426324,0.0008354348105452658,-0.13844252070555285
500bus.pwf,19,101,344,342,-0.024300009999817348,-0.006434953276892802,0.024300383287891577,0.006437485038715213,3.732880742290945e-7,2.531761822410772e-6
500bus.pwf,19,102,154,488,0.737033302558396,0.20131184713032552,-0.7321895978087184,-0.18170344082483686,0.0048437047496776575,0.019608406305488657
500bus.pwf,19,103,104,31,-0.16103094491239123,-0.24674156358552876,0.16151156620372653,0.23480587680687945,0.0004806212913353036,-0.011935686778649313
500bus.pwf,19,104,398,387,-0.16770000999980808,-0.04470405660549155,0.16772079550981103,0.04479732260937859,2.0785510002951924e-5,9.32660038870381e-5
500bus.pwf,19,105,322,58,-1.5785604730377474,-0.050593254916849933,1.5837973754380272,0.09483375850746475,0.0052369024002798525,0.04424050359061482
500bus.pwf,19,106,428,246,-0.002208227041831109,-0.09397443343025824,0.002212404614756921,-0.21783206178584524,4.177572925812001e-6,-0.3118064952161035
500bus.pwf,19,107,221,493,0.9032731035071847,0.1184806428893939,-0.9004027544429999,-0.1013023513058318,0.0028703490641848184,0.0171782915835621
500bus.pwf,19,108,287,415,0.45906159901708704,0.105654475690074,-0.4581040011024545,-0.11068641848234204,0.0009575979146325686,-0.00503194279226804
500bus.pwf,19,109,373,372,-0.28840000999973314,-0.07689749393990603,0.28845239858614435,0.0771841576516396,5.238858641121169e-5,0.0002866637117335813
500bus.pwf,19,110,376,495,-0.12733800530034997,-0.004983051026212179,0.1273935188663252,-0.004502835065583058,5.551356597521817e-5,-0.009485886091795237
500bus.pwf,19,111,405,300,-0.3492956202852794,-0.024269265993350123,0.3497198885931626,0.018145191089143045,0.00042426830788322434,-0.0061240749042070775
500bus.pwf,19,112,15,473,0.20734280208908856,0.017876062587258355,-0.2069384759960466,-0.04418761502810317,0.0004043260930419734,-0.026311552440844817
500bus.pwf,19,113,210,24,-1.2631809364631883,-0.34326721027001483,1.2671434168934976,0.3726400132509592,0.003962480430309334,0.029372802980944357
500bus.pwf,19,114,62,3,0.12051340902339662,0.010717065806813314,-0.12047341121743198,-0.018768650380434855,3.99978059646422e-5,-0.008051584573621541
500bus.pwf,19,115,191,205,0.32577589870188534,-0.060633945047439186,-0.32516956409073733,0.05064486866322021,0.0006063346111480072,-0.009989076384218976
500bus.pwf,19,116,485,454,-0.7737744094141445,-0.09391440648187913,0.7750447782175607,0.09986485292541405,0.0012703688034161331,0.005950446443534929
500bus.pwf,19,117,31,85,-0.4150926440624058,0.10370225836379468,0.4160927464622394,-0.11015538445660603,0.0010001023998336134,-0.006453126092811345
500bus.pwf,19,118,235,271,0.8455527480116981,-0.04292170809264656,-0.8453241595201139,-0.03924797248837114,0.00022858849158424732,-0.0821696805810177
500bus.pwf,19,119,110,316,-1.120826377918976,0.28644827965323016,1.1253856921270533,-0.25340101494832523,0.004559314208077314,0.03304726470490493
500bus.pwf,19,120,143,401,2.1075932583089196,0.24496960931517509,-2.0896985282167733,-0.08579374855934463,0.01789473009214637,0.15917586075583046
500bus.pwf,19,121,307,304,-0.7604000099998084,-0.20279575581870343,0.7607639118951705,0.2051023309152009,0.0003639018953620621,0.002306575096497454
500bus.pwf,19,122,290,289,-0.03690000999983179,-0.009792439260321424,0.03690078486825011,0.009797875334937652,7.748684183184196e-7,5.436074616227415e-6
500bus.pwf,19,123,356,382,-0.1097724811485533,-0.18755175019801026,0.10990437574313493,0.18007294334179033,0.00013189459458162744,-0.007478806856219933
500bus.pwf,19,124,429,466,0.3153644986420647,0.09340889198912064,-0.315162215093061,-0.0975374653311715,0.00020228354900364565,-0.004128573342050856
500bus.pwf,19,125,358,310,-0.31645497859608235,0.15407361580155357,0.3168302144400143,-0.15992852381041747,0.00037523584393195364,-0.005854908008863902
500bus.pwf,19,126,471,464,0.9420556276685457,-0.07713480835756042,-0.941679540059096,-0.028048505491109543,0.0003760876094496268,-0.10518331384866997
500bus.pwf,19,127,80,65,0.7947718253902478,-0.3635346717717902,-0.7940928513482028,0.13183447879919405,0.0006789740420449775,-0.23170019297259617
500bus.pwf,19,128,21,112,0.5226147003283793,-0.0027741078595462376,-0.5211910089298085,0.0010656278273928343,0.0014236913985707922,-0.0017084800321534033
500bus.pwf,19,129,4,3,-1.3270000099997181,-0.35378856190293706,1.3283103047691076,0.36044965295422204,0.0013102947693894862,0.006661091051284984
500bus.pwf,19,130,244,426,0.02585493803336128,-0.14274811163285553,-0.025780319554088466,0.131791881675444,7.46184792728144e-5,-0.010956229957411523
500bus.pwf,19,131,60,131,-0.12030662064458404,-0.012672884280520246,0.12033574404719534,0.006532851408040141,2.9123402611297422e-5,-0.006140032872480106
500bus.pwf,19,132,321,320,-1.5040000099998094,-0.401056752530151,1.505577700659269,0.4101795256531047,0.001577690659459563,0.009122773122953731
500bus.pwf,19,133,445,461,-0.011426360449538105,0.134837211216791,0.011493124286166174,-0.14416650709194928,6.676383662806984e-5,-0.009329295875158294
500bus.pwf,19,134,472,99,0.011689130873345166,-0.04182808175800986,-0.011684181890403045,0.0316274439269408,4.948982942121205e-6,-0.01020063783106906
500bus.pwf,19,135,492,336,-0.29899858404750657,-0.13900849271843552,0.299690876762445,0.12646829098658696,0.000692292714938425,-0.012540201731848555
500bus.pwf,19,136,448,447,-0.575600009999748,-0.15361998617705364,0.5758097677909804,0.1550150189097418,0.0002097577912323345,0.0013950327326881506
500bus.pwf,19,137,235,407,-1.6455327912828355,-0.07911916256278659,1.6489687592157192,-0.2129546701844839,0.003435967932883699,-0.2920738327472705
500bus.pwf,19,138,19,112,-0.20512406497811272,0.009987681864472464,0.20533003752124743,-0.02223191649415962,0.0002059725431347026,-0.012244234629687156
500bus.pwf,19,139,56,55,-0.022530009999807404,-0.006048029762560732,0.02253036811865398,0.006049879019095302,3.581188465773266e-7,1.8492565345695766e-6
500bus.pwf,19,140,313,312,-0.1244000099997664,-0.033171174070554144,0.12441118863701782,0.03324039040998039,1.1178637251418877e-5,6.921633942624794e-5
500bus.pwf,19,141,34,33,-0.25000000999982164,-0.06663809323342984,0.250043756955199,0.0668681500923547,4.3746955377343966e-5,0.00023005685892485417
500bus.pwf,19,142,429,139,0.8352167731244364,0.23007850184123999,-0.8341091718144948,-0.2239533495989919,0.001107601309941586,0.0061251522422480775
500bus.pwf,19,143,376,429,-1.2534087829932308,-0.315126231635862,1.2581218941018097,0.352013239475003,0.004713111108578971,0.036887007839141006
500bus.pwf,19,144,44,200,-0.38596056378155535,-0.007214176700520089,0.38627073789714733,0.0031333651252845457,0.00031017411559197683,-0.004080811575235543
500bus.pwf,19,145,240,74,0.14524747976316393,-0.04801181834880644,-0.1451430419766539,0.03501704636068062,0.00010443778651003655,-0.01299477198812582
500bus.pwf,19,146,68,314,-0.559252367617387,0.11017833582974124,0.5598443069889746,-0.11004351800903311,0.0005919393715876353,0.00013481782070812187
500bus.pwf,19,147,343,342,-0.025110009999822377,-0.006654953350118619,0.025110411561145237,0.006657483807327723,4.015613228602888e-7,2.5304572091044975e-6
500bus.pwf,19,148,162,232,2.216721114975715,-0.2916332868400242,-2.214155243801586,0.1891950664352318,0.0025658711741289864,-0.10243822040479242
500bus.pwf,19,149,166,228,1.6579516476893859,0.40415687909910336,-1.644320268223086,-0.2950827811268565,0.013631379466299887,0.10907409797224688
500bus.pwf,19,150,92,91,-0.650300009999795,-0.173416811978655,0.6505629259221509,0.17508030589920098,0.0002629159223559441,0.0016634939205459887
500bus.pwf,19,151,174,172,-0.07305000999983102,-0.019428581137595248,0.07305350930700749,0.019446731068660884,3.4993071764688466e-6,1.8149931065636338e-5
500bus.pwf,19,152,475,269,-0.35850173425143006,0.0823551567365898,0.35898520924700716,-0.0886044785210737,0.0004834749955771045,-0.006249321784483897
500bus.pwf,19,153,65,297,-0.09466532502241644,-0.19987131069920352,0.09468031174391402,-0.0320645027069922,1.4986721497578515e-5,-0.23193581340619573
500bus.pwf,19,154,89,457,-0.4059561173385226,-0.07134649773045992,0.40745596834848036,0.05527186827509595,0.0014998510099577533,-0.016074629455363976
500bus.pwf,19,155,201,200,-0.08889000999967465,-0.02369887225730215,0.08889574285173439,0.023725398815617405,5.732852059736615e-6,2.652655831525408e-5
500bus.pwf,19,156,140,139,-0.002550009999823209,-0.0006598572269513455,0.0025500142185712264,0.0006598795936429555,4.2187480175925884e-9,2.2366691609931877e-8
500bus.pwf,19,157,221,478,-0.37438182133364867,0.08195908357934845,0.37483545428349435,-0.08689229835653767,0.0004536329498456837,-0.004933214777189221
500bus.pwf,19,158,138,137,-0.7870000099997829,-0.20982001157006963,0.7873846832409617,0.21244265778603805,0.0003846732411787457,0.002622646215968416
500bus.pwf,19,159,143,452,1.2927546457411305,0.06296419716645202,-1.2803818372987466,0.03223809063521005,0.012372808442383976,0.09520228780166207
500bus.pwf,19,160,407,80,-1.515711548341301,0.14144078845190358,1.5176834397649428,-0.33851509848060024,0.001971891423641736,-0.19707431002869666
500bus.pwf,19,161,175,220,0.3853337086564397,-0.1313310691113314,-0.38517176004536435,-0.14689792196498686,0.00016194861107532432,-0.27822899107631827
500bus.pwf,19,162,153,152,-0.931500009999818,-0.24839507403856337,0.9319982816550286,0.2513239138868297,0.0004982716552106581,0.002928839848266307
500bus.pwf,19,163,421,354,-0.555206371849691,-0.21728954591870384,0.5568577806294094,0.21793902594586065,0.0016514087797183663,0.0006494800271568124
500bus.pwf,19,164,454,29,1.1405854760436738,0.12582151228612654,-1.1372866468446212,-0.10343858416837641,0.0032988291990525553,0.022382928117750125
500bus.pwf,19,165,228,474,0.7326312338701148,0.0981416987975585,-0.7290235496994043,-0.0858001827607353,0.0036076841707104457,0.012341516036823208
500bus.pwf,19,166,194,193,-0.2869000099998123,-0.07651665256714785,0.2869633647810664,0.07686289550777053,6.33547812540769e-5,0.00034624294062268746
500bus.pwf,19,167,360,417,0.18000580927934867,-0.018257974002185283,-0.1797316171188304,-0.0032900083478204847,0.0002741921605182718,-0.021547982350005768
500bus.pwf,19,168,462,477,0.4370885165410623,0.012121929262169776,-0.43612690838527013,-0.018354022690404495,0.0009616081557921596,-0.00623209342823472
500bus.pwf,19,169,159,158,-0.22850000999982142,-0.0609379573655155,0.22853419082964307,0.06115831220917806,3.4180829821650605e-5,0.00022035484366256242
500bus.pwf,19,170,273,272,-0.09492000999980374,-0.02530811962408492,0.09492563589310518,0.025347754706685773,5.62589330144192e-6,3.963508260085291e-5
500bus.pwf,19,171,310,281,-0.755261034205595,0.5122918004073754,0.7571968750865852,-0.5004238143425327,0.0019358408809901917,0.01186798606484274
500bus.pwf,19,172,375,374,-0.24770000999978317,-0.06603658483211494,0.24773399960455658,0.06624057672476202,3.3989604773410065e-5,0.00020399189264708184
500bus.pwf,19,173,378,318,-0.4933014853880489,-0.05731681080390408,0.49362356757966125,0.05638778690227034,0.0003220821916123384,-0.0009290239016337409
500bus.pwf,19,174,114,191,-0.1829290947776409,-0.01251951214846031,0.18312412224297442,-0.002064309085338889,0.00019502746533350823,-0.014583821233799199
500bus.pwf,19,175,112,236,0.012855274938703398,-0.004527729935051166,-0.01285403549506967,-0.014519057449731438,1.2394436337270776e-6,-0.019046787384782604
500bus.pwf,19,176,202,172,0.2490903168899144,-0.10135371807422727,-0.24878574557625416,0.09223182176310912,0.00030457131366024015,-0.00912189631111815
500bus.pwf,19,177,459,496,-0.26587984527233727,-0.13258278558561631,0.26606064727030515,0.12747928713555456,0.0001808019979678832,-0.00510349845006175
500bus.pwf,19,178,233,53,0.9847188375090586,0.08118835686544641,-0.9824128481491617,-0.06768805970527565,0.0023059893598968983,0.01350029716017076
500bus.pwf,19,179,59,58,-1.409000009999819,-0.37580694994037533,1.4103657331796993,0.38427866026515933,0.0013657231798802627,0.008471710324783999
500bus.pwf,19,180,160,212,-0.13067836577175398,0.006688094569565678,0.13072472493389334,-0.013816176852483736,4.6359162139353316e-5,-0.007128082282918058
500bus.pwf,19,181,243,242,-0.7447000099998191,-0.19851966107209557,0.7450697159746453,0.20077877875028854,0.0003697059748262177,0.002259117678192979
500bus.pwf,19,182,284,283,-0.3265000099997697,-0.08705802216836261,0.3265763959736181,0.08753021345493878,7.638597384840295e-5,0.0004721912865761624
500bus.pwf,19,183,87,141,3.176635156338877,-0.08232570317613513,-3.157596107850913,0.2595597103593939,0.019039048487964116,0.17723400718325877
500bus.pwf,19,184,83,342,-0.4602201093018441,-0.14016742297937043,0.4612127122105405,0.13744961001363606,0.000992602908696405,-0.0027178129657343675
500bus.pwf,19,185,338,459,0.47927475077702114,0.06381176436312007,-0.47882016472742167,-0.06600631982256676,0.00045458604959947024,-0.00219455545944669
500bus.pwf,19,186,402,401,-0.883500009999763,-0.23573233394717152,0.8839322039885134,0.2388713425670541,0.0004321939887503845,0.0031390086198825884
500bus.pwf,19,187,253,417,-0.4964559747734375,-0.08227142628352635,0.49787594452267425,0.07878071543549947,0.0014199697492367491,-0.003490710848026879
500bus.pwf,19,188,216,70,-0.25603739697945416,-0.10375849529894918,0.2562461490431426,0.0977249652709575,0.00020875206368842214,-0.006033530027991674
500bus.pwf,19,189,124,260,0.24669895637124434,0.05178771134246134,-0.24657375967771383,-0.057532025164929765,0.0001251966935305049,-0.005744313822468428
500bus.pwf,19,190,491,326,-0.07140996299054966,0.10610963111988592,0.07145129676049597,-0.11303819334785525,4.1333769946305665e-5,-0.006928562227969337
500bus.pwf,19,191,424,423,-1.5710000099997592,-0.418842484067371,1.5728665547726968,0.4294001706339847,0.0018665447729375728,0.010557686566613711
500bus.pwf,19,192,40,131,0.29079457082613164,0.06883765267511972,-0.2905325997641434,-0.07585361797218422,0.00026197106198821984,-0.007015965297064497
500bus.pwf,19,193,131,333,-0.08184929573374274,0.001868830982298635,0.08186437793795805,-0.008582367667993156,1.5082204215310924e-5,-0.006713536685694521
500bus.pwf,19,194,180,179,-0.14140000999981073,-0.03769479151005103,0.14141534056468164,0.03776773760712845,1.5330564870907892e-5,7.294609707741984e-5
500bus.pwf,19,195,137,214,0.48784380300968383,0.058071231485960155,-0.4870580469339982,-0.05978529302663826,0.0007857560756856508,-0.0017140615406781023
500bus.pwf,19,196,227,226,-0.05424000999982747,-0.014474236448099817,0.05424213446884062,0.014484901167852457,2.1244690131538846e-6,1.066471975263994e-5
500bus.pwf,19,197,158,233,-0.47773842524078397,-0.10168992448050071,0.47920523533232645,0.09548188078008588,0.0014668100915424809,-0.006208043700414834
500bus.pwf,19,198,135,457,-0.5903389865890872,-0.09104596907089126,0.5927565297612581,0.09051655341185318,0.0024175431721709106,-0.0005294156590380794
500bus.pwf,19,199,181,487,-0.9514225264254536,0.2828661187997239,0.954085199983609,-0.2659623477230111,0.002662673558155415,0.016903771076712815
500bus.pwf,19,200,348,347,-0.8640000099998064,-0.2302902362873168,0.864493664156605,0.23295086755564384,0.0004936541567985842,0.0026606312683270517
...
